version 2
1
9
.tran 1n 10u 0{return}{return}.kicad adjustpaths{return}.save all{return}.probe alli
3
1
V(/DOUT)
 
1
V(/MOSI)
 
1
V(/SCK)
 
